<?xml version="1.0" encoding="UTF-8"?>

<!-- generated on 2025-04-25 21:41:37 by Eclipse SUMO netedit Version 1.18.0
<configuration xmlns:xsi="http://www.w3.org/2001/XMLSchema-instance" xsi:noNamespaceSchemaLocation="http://sumo.dlr.de/xsd/neteditConfiguration.xsd">

    <input>
        <sumocfg-file value="C:\MiniLynx\Second\PP\4 sem\SUMO\cros.sumocfg"/>
        <additional-files value="C:\MiniLynx\Second\PP\4 sem\SUMO\cros.add.xml"/>
        <route-files value="C:\MiniLynx\Second\PP\4 sem\SUMO\cros.rou.xml"/>
        <sumo-net-file value="C:\MiniLynx\Second\PP\4 sem\SUMO\cros.net.xml"/>
    </input>

    <output>
        <output-file value="C:\MiniLynx\Second\PP\4 sem\SUMO\cros.net.xml"/>
    </output>

    <processing>
        <geometry.min-radius.fix.railways value="false"/>
        <geometry.max-grade.fix value="false"/>
        <offset.disable-normalization value="true"/>
        <lefthand value="0"/>
    </processing>

    <junctions>
        <no-turnarounds value="true"/>
        <junctions.corner-detail value="5"/>
        <junctions.limit-turn-speed value="5.50"/>
        <rectangular-lane-cut value="0"/>
    </junctions>

    <pedestrian>
        <walkingareas value="0"/>
    </pedestrian>

</configuration>
-->

<net version="1.16" junctionCornerDetail="5" limitTurnSpeed="5.50" xmlns:xsi="http://www.w3.org/2001/XMLSchema-instance" xsi:noNamespaceSchemaLocation="http://sumo.dlr.de/xsd/net_file.xsd">

    <location netOffset="0.00,0.00" convBoundary="-99.73,-39.09,210.54,140.51" origBoundary="-10000000000.00,-10000000000.00,10000000000.00,10000000000.00" projParameter="!"/>

    <edge id=":E_cros_0" function="internal">
        <lane id=":E_cros_0_0" index="0" speed="6.51" length="9.03" shape="45.09,64.16 44.74,61.71 43.69,59.96 41.94,58.91 39.49,58.56"/>
    </edge>
    <edge id=":E_cros_1" function="internal">
        <lane id=":E_cros_1_0" index="0" speed="13.89" length="27.21" shape="45.09,64.16 45.10,36.96"/>
        <lane id=":E_cros_1_1" index="1" speed="13.89" length="27.21" shape="48.29,64.16 48.30,36.96"/>
    </edge>
    <edge id=":E_cros_3" function="internal">
        <lane id=":E_cros_3_0" index="0" speed="9.84" length="6.31" shape="48.29,64.16 49.00,57.89"/>
    </edge>
    <edge id=":E_cros_18" function="internal">
        <lane id=":E_cros_18_0" index="0" speed="9.84" length="15.69" shape="49.00,57.89 49.04,57.51 51.29,52.76 55.04,49.91 60.29,48.96"/>
    </edge>
    <edge id=":E_cros_4" function="internal">
        <lane id=":E_cros_4_0" index="0" speed="6.51" length="9.03" shape="60.29,58.56 57.84,58.91 56.09,59.96 55.04,61.71 54.69,64.16"/>
    </edge>
    <edge id=":E_cros_5" function="internal">
        <lane id=":E_cros_5_0" index="0" speed="13.89" length="20.80" shape="60.29,58.56 39.49,58.56"/>
        <lane id=":E_cros_5_1" index="1" speed="13.89" length="20.80" shape="60.29,55.36 39.49,55.36"/>
        <lane id=":E_cros_5_2" index="2" speed="13.89" length="20.80" shape="60.29,52.16 39.49,52.16"/>
    </edge>
    <edge id=":E_cros_8" function="internal">
        <lane id=":E_cros_8_0" index="0" speed="9.84" length="4.01" shape="60.29,52.16 56.35,51.45"/>
    </edge>
    <edge id=":E_cros_19" function="internal">
        <lane id=":E_cros_19_0" index="0" speed="9.84" length="17.99" shape="56.35,51.45 55.04,51.21 51.29,48.36 49.04,43.61 48.30,36.96"/>
    </edge>
    <edge id=":E_cros_9" function="internal">
        <lane id=":E_cros_9_0" index="0" speed="6.51" length="9.03" shape="54.70,36.96 55.05,39.41 56.09,41.16 57.84,42.21 60.29,42.56"/>
    </edge>
    <edge id=":E_cros_10" function="internal">
        <lane id=":E_cros_10_0" index="0" speed="13.89" length="27.20" shape="54.70,36.96 54.69,64.16"/>
        <lane id=":E_cros_10_1" index="1" speed="13.89" length="27.20" shape="51.50,36.96 51.49,64.16"/>
    </edge>
    <edge id=":E_cros_12" function="internal">
        <lane id=":E_cros_12_0" index="0" speed="9.84" length="6.28" shape="51.50,36.96 50.79,43.20"/>
    </edge>
    <edge id=":E_cros_20" function="internal">
        <lane id=":E_cros_20_0" index="0" speed="9.84" length="15.71" shape="50.79,43.20 50.74,43.61 48.49,48.36 44.74,51.21 39.49,52.16"/>
    </edge>
    <edge id=":E_cros_13" function="internal">
        <lane id=":E_cros_13_0" index="0" speed="6.51" length="9.04" shape="39.49,42.56 41.94,42.21 43.69,41.16 44.74,39.41 45.10,36.96"/>
    </edge>
    <edge id=":E_cros_14" function="internal">
        <lane id=":E_cros_14_0" index="0" speed="13.89" length="20.80" shape="39.49,42.56 60.29,42.56"/>
        <lane id=":E_cros_14_1" index="1" speed="13.89" length="20.80" shape="39.49,45.76 60.29,45.76"/>
        <lane id=":E_cros_14_2" index="2" speed="13.89" length="20.80" shape="39.49,48.96 60.29,48.96"/>
    </edge>
    <edge id=":E_cros_17" function="internal">
        <lane id=":E_cros_17_0" index="0" speed="9.84" length="4.01" shape="39.49,48.96 43.44,49.67"/>
    </edge>
    <edge id=":E_cros_21" function="internal">
        <lane id=":E_cros_21_0" index="0" speed="9.84" length="17.98" shape="43.44,49.67 44.74,49.91 48.49,52.76 50.74,57.51 51.49,64.16"/>
    </edge>

    <edge id="b_from" from="E_b" to="E_cros" priority="-1">
        <lane id="b_from_0" index="0" speed="13.89" length="76.05" shape="54.73,-39.09 54.70,36.96"/>
        <lane id="b_from_1" index="1" speed="13.89" length="76.05" shape="51.53,-39.09 51.50,36.96"/>
    </edge>
    <edge id="b_to" from="E_cros" to="E_b" priority="-1">
        <lane id="b_to_0" index="0" speed="13.89" length="76.05" shape="45.10,36.96 45.13,-39.09"/>
        <lane id="b_to_1" index="1" speed="13.89" length="76.05" shape="48.30,36.96 48.33,-39.09"/>
    </edge>
    <edge id="l_from" from="E_l" to="E_cros" priority="-1">
        <lane id="l_from_0" index="0" speed="13.89" length="139.22" shape="-99.73,42.56 39.49,42.56"/>
        <lane id="l_from_1" index="1" speed="13.89" length="139.22" shape="-99.73,45.76 39.49,45.76"/>
        <lane id="l_from_2" index="2" speed="13.89" length="139.22" shape="-99.73,48.96 39.49,48.96"/>
    </edge>
    <edge id="l_to" from="E_cros" to="E_l" priority="-1">
        <lane id="l_to_0" index="0" speed="13.89" length="139.22" shape="39.49,58.56 -99.73,58.56"/>
        <lane id="l_to_1" index="1" speed="13.89" length="139.22" shape="39.49,55.36 -99.73,55.36"/>
        <lane id="l_to_2" index="2" speed="13.89" length="139.22" shape="39.49,52.16 -99.73,52.16"/>
    </edge>
    <edge id="r_from" from="E_r" to="E_cros" priority="-1">
        <lane id="r_from_0" index="0" speed="13.89" length="150.25" shape="210.54,58.56 60.29,58.56"/>
        <lane id="r_from_1" index="1" speed="13.89" length="150.25" shape="210.54,55.36 60.29,55.36"/>
        <lane id="r_from_2" index="2" speed="13.89" length="150.25" shape="210.54,52.16 60.29,52.16"/>
    </edge>
    <edge id="r_to" from="E_cros" to="E_r" priority="-1">
        <lane id="r_to_0" index="0" speed="13.89" length="150.25" shape="60.29,42.56 210.54,42.56"/>
        <lane id="r_to_1" index="1" speed="13.89" length="150.25" shape="60.29,45.76 210.54,45.76"/>
        <lane id="r_to_2" index="2" speed="13.89" length="150.25" shape="60.29,48.96 210.54,48.96"/>
    </edge>
    <edge id="t_from" from="E_t" to="E_cros" priority="-1">
        <lane id="t_from_0" index="0" speed="13.89" length="76.35" shape="45.10,140.51 45.09,64.16"/>
        <lane id="t_from_1" index="1" speed="13.89" length="76.35" shape="48.30,140.51 48.29,64.16"/>
    </edge>
    <edge id="t_to" from="E_cros" to="E_t" priority="-1">
        <lane id="t_to_0" index="0" speed="13.89" length="76.35" shape="54.69,64.16 54.70,140.51"/>
        <lane id="t_to_1" index="1" speed="13.89" length="76.35" shape="51.49,64.16 51.50,140.51"/>
    </edge>

    <tlLogic id="tl" type="static" programID="0" offset="0">
        <phase duration="40" state="rrrrgGGGgrrrrgGGGg" next="1"/>
        <phase duration="35" state="gGGgrrrrrgGGgrrrrr" next="0"/>
        <phase duration="30" state="rrrrrrrrrrrrrGGGGG"/>
        <phase duration="30" state="rrrrGGGGGrrrrrrrrr"/>
        <phase duration="25" state="rrrrrrrrrGGGGrrrrr"/>
        <phase duration="25" state="GGGGrrrrrrrrrrrrrr"/>
    </tlLogic>

    <junction id="E_b" type="dead_end" x="49.93" y="-39.09" incLanes="b_to_0 b_to_1" intLanes="" shape="49.93,-39.09 43.53,-39.09 49.93,-39.09"/>
    <junction id="E_cros" type="traffic_light" x="49.89" y="50.56" incLanes="t_from_0 t_from_1 r_from_0 r_from_1 r_from_2 b_from_0 b_from_1 l_from_0 l_from_1 l_from_2" intLanes=":E_cros_0_0 :E_cros_1_0 :E_cros_1_1 :E_cros_18_0 :E_cros_4_0 :E_cros_5_0 :E_cros_5_1 :E_cros_5_2 :E_cros_19_0 :E_cros_9_0 :E_cros_10_0 :E_cros_10_1 :E_cros_20_0 :E_cros_13_0 :E_cros_14_0 :E_cros_14_1 :E_cros_14_2 :E_cros_21_0" shape="43.49,64.16 56.29,64.16 56.74,61.94 57.29,61.16 58.07,60.60 59.07,60.27 60.29,60.16 60.29,40.96 58.07,40.52 57.29,39.96 56.74,39.18 56.41,38.18 56.30,36.96 43.50,36.95 43.05,39.18 42.49,39.96 41.72,40.51 40.71,40.85 39.49,40.96 39.49,60.16 41.71,60.60 42.49,61.16 43.05,61.94 43.38,62.94">
        <request index="0"  response="000000000011100000" foes="000000000011100000" cont="0"/>
        <request index="1"  response="111110000111100000" foes="111111000111100000" cont="0"/>
        <request index="2"  response="111110000111100000" foes="111111000111100000" cont="0"/>
        <request index="3"  response="111100110111100000" foes="111100110111100000" cont="1"/>
        <request index="4"  response="000000000000000000" foes="000000110000000000" cont="0"/>
        <request index="5"  response="000001000000001000" foes="100001110000001111" cont="0"/>
        <request index="6"  response="000001000000001000" foes="100001110000001111" cont="0"/>
        <request index="7"  response="000001000000001000" foes="100001110000001111" cont="0"/>
        <request index="8"  response="011101000000001000" foes="011101110000001110" cont="1"/>
        <request index="9"  response="011100000000000000" foes="011100000000000000" cont="0"/>
        <request index="10" response="111100000111110000" foes="111100000111111000" cont="0"/>
        <request index="11" response="111100000111110000" foes="111100000111111000" cont="0"/>
        <request index="12" response="111100000111100110" foes="111100000111100110" cont="1"/>
        <request index="13" response="000000000000000000" foes="000000000000000110" cont="0"/>
        <request index="14" response="000001000000001000" foes="000001111100001110" cont="0"/>
        <request index="15" response="000001000000001000" foes="000001111100001110" cont="0"/>
        <request index="16" response="000001000000001000" foes="000001111100001110" cont="0"/>
        <request index="17" response="000001000011101000" foes="000001110011101110" cont="1"/>
    </junction>
    <junction id="E_l" type="dead_end" x="-99.73" y="50.56" incLanes="l_to_0 l_to_1 l_to_2" intLanes="" shape="-99.73,50.56 -99.73,60.16 -99.73,50.56"/>
    <junction id="E_r" type="dead_end" x="210.54" y="50.56" incLanes="r_to_0 r_to_1 r_to_2" intLanes="" shape="210.54,50.56 210.54,40.96 210.54,50.56"/>
    <junction id="E_t" type="dead_end" x="49.90" y="140.51" incLanes="t_to_0 t_to_1" intLanes="" shape="49.90,140.51 56.30,140.51 49.90,140.51"/>

    <junction id=":E_cros_18_0" type="internal" x="49.00" y="57.89" incLanes=":E_cros_3_0 b_from_0 b_from_1" intLanes=":E_cros_5_0 :E_cros_5_1 :E_cros_5_2 :E_cros_8_0 :E_cros_9_0 :E_cros_10_0 :E_cros_10_1 :E_cros_14_0 :E_cros_14_1 :E_cros_14_2 :E_cros_17_0"/>
    <junction id=":E_cros_19_0" type="internal" x="56.35" y="51.45" incLanes=":E_cros_8_0 l_from_0 l_from_1 l_from_2" intLanes=":E_cros_1_0 :E_cros_1_1 :E_cros_3_0 :E_cros_10_0 :E_cros_10_1 :E_cros_12_0 :E_cros_13_0 :E_cros_14_0 :E_cros_14_1 :E_cros_14_2"/>
    <junction id=":E_cros_20_0" type="internal" x="50.79" y="43.20" incLanes=":E_cros_12_0 t_from_0 t_from_1" intLanes=":E_cros_0_0 :E_cros_1_0 :E_cros_1_1 :E_cros_5_0 :E_cros_5_1 :E_cros_5_2 :E_cros_8_0 :E_cros_14_0 :E_cros_14_1 :E_cros_14_2 :E_cros_17_0"/>
    <junction id=":E_cros_21_0" type="internal" x="43.44" y="49.67" incLanes=":E_cros_17_0 r_from_0 r_from_1 r_from_2" intLanes=":E_cros_1_0 :E_cros_1_1 :E_cros_3_0 :E_cros_4_0 :E_cros_5_0 :E_cros_5_1 :E_cros_5_2 :E_cros_10_0 :E_cros_10_1 :E_cros_12_0"/>

    <connection from="b_from" to="r_to" fromLane="0" toLane="0" via=":E_cros_9_0" tl="tl" linkIndex="9" dir="r" state="o"/>
    <connection from="b_from" to="t_to" fromLane="0" toLane="0" via=":E_cros_10_0" tl="tl" linkIndex="10" dir="s" state="o"/>
    <connection from="b_from" to="t_to" fromLane="1" toLane="1" via=":E_cros_10_1" tl="tl" linkIndex="11" dir="s" state="o"/>
    <connection from="b_from" to="l_to" fromLane="1" toLane="2" via=":E_cros_12_0" tl="tl" linkIndex="12" dir="l" state="o"/>
    <connection from="l_from" to="b_to" fromLane="0" toLane="0" via=":E_cros_13_0" tl="tl" linkIndex="13" dir="r" state="O"/>
    <connection from="l_from" to="r_to" fromLane="0" toLane="0" via=":E_cros_14_0" tl="tl" linkIndex="14" dir="s" state="O"/>
    <connection from="l_from" to="r_to" fromLane="1" toLane="1" via=":E_cros_14_1" tl="tl" linkIndex="15" dir="s" state="O"/>
    <connection from="l_from" to="r_to" fromLane="2" toLane="2" via=":E_cros_14_2" tl="tl" linkIndex="16" dir="s" state="O"/>
    <connection from="l_from" to="t_to" fromLane="2" toLane="1" via=":E_cros_17_0" tl="tl" linkIndex="17" dir="l" state="o"/>
    <connection from="r_from" to="t_to" fromLane="0" toLane="0" via=":E_cros_4_0" tl="tl" linkIndex="4" dir="r" state="O"/>
    <connection from="r_from" to="l_to" fromLane="0" toLane="0" via=":E_cros_5_0" tl="tl" linkIndex="5" dir="s" state="O"/>
    <connection from="r_from" to="l_to" fromLane="1" toLane="1" via=":E_cros_5_1" tl="tl" linkIndex="6" dir="s" state="O"/>
    <connection from="r_from" to="l_to" fromLane="2" toLane="2" via=":E_cros_5_2" tl="tl" linkIndex="7" dir="s" state="O"/>
    <connection from="r_from" to="b_to" fromLane="2" toLane="1" via=":E_cros_8_0" tl="tl" linkIndex="8" dir="l" state="o"/>
    <connection from="t_from" to="l_to" fromLane="0" toLane="0" via=":E_cros_0_0" tl="tl" linkIndex="0" dir="r" state="o"/>
    <connection from="t_from" to="b_to" fromLane="0" toLane="0" via=":E_cros_1_0" tl="tl" linkIndex="1" dir="s" state="o"/>
    <connection from="t_from" to="b_to" fromLane="1" toLane="1" via=":E_cros_1_1" tl="tl" linkIndex="2" dir="s" state="o"/>
    <connection from="t_from" to="r_to" fromLane="1" toLane="2" via=":E_cros_3_0" tl="tl" linkIndex="3" dir="l" state="o"/>

    <connection from=":E_cros_0" to="l_to" fromLane="0" toLane="0" dir="r" state="M"/>
    <connection from=":E_cros_1" to="b_to" fromLane="0" toLane="0" dir="s" state="M"/>
    <connection from=":E_cros_1" to="b_to" fromLane="1" toLane="1" dir="s" state="M"/>
    <connection from=":E_cros_3" to="r_to" fromLane="0" toLane="2" via=":E_cros_18_0" dir="l" state="m"/>
    <connection from=":E_cros_18" to="r_to" fromLane="0" toLane="2" dir="l" state="M"/>
    <connection from=":E_cros_4" to="t_to" fromLane="0" toLane="0" dir="r" state="M"/>
    <connection from=":E_cros_5" to="l_to" fromLane="0" toLane="0" dir="s" state="M"/>
    <connection from=":E_cros_5" to="l_to" fromLane="1" toLane="1" dir="s" state="M"/>
    <connection from=":E_cros_5" to="l_to" fromLane="2" toLane="2" dir="s" state="M"/>
    <connection from=":E_cros_8" to="b_to" fromLane="0" toLane="1" via=":E_cros_19_0" dir="l" state="m"/>
    <connection from=":E_cros_19" to="b_to" fromLane="0" toLane="1" dir="l" state="M"/>
    <connection from=":E_cros_9" to="r_to" fromLane="0" toLane="0" dir="r" state="M"/>
    <connection from=":E_cros_10" to="t_to" fromLane="0" toLane="0" dir="s" state="M"/>
    <connection from=":E_cros_10" to="t_to" fromLane="1" toLane="1" dir="s" state="M"/>
    <connection from=":E_cros_12" to="l_to" fromLane="0" toLane="2" via=":E_cros_20_0" dir="l" state="m"/>
    <connection from=":E_cros_20" to="l_to" fromLane="0" toLane="2" dir="l" state="M"/>
    <connection from=":E_cros_13" to="b_to" fromLane="0" toLane="0" dir="r" state="M"/>
    <connection from=":E_cros_14" to="r_to" fromLane="0" toLane="0" dir="s" state="M"/>
    <connection from=":E_cros_14" to="r_to" fromLane="1" toLane="1" dir="s" state="M"/>
    <connection from=":E_cros_14" to="r_to" fromLane="2" toLane="2" dir="s" state="M"/>
    <connection from=":E_cros_17" to="t_to" fromLane="0" toLane="1" via=":E_cros_21_0" dir="l" state="m"/>
    <connection from=":E_cros_21" to="t_to" fromLane="0" toLane="1" dir="l" state="M"/>

</net>
